test/fixtures/powsybl/micro_grid_be.powsybl/reference_buses.csv
"id","bus_breaker_id","v_mag_kv","v_angle_deg","v_pu","synchronous_component","nominal_v"
"4ba71b59-ee2f-450b-9f7d-cc2f1cc5e386_0","a81d08ed-f51d-4538-8d1e-fb2d0dbd128e",10.49822093566268,3.310048115465089,0.9998305653012076,0,10.5
"8bbd7e74-ae20-4dce-8780-c20f8e18c2e0_0","5c74cb26-ce2f-40c6-951d-89091eb781b6",115.5,0.9712432700042213,1.05,0,110.0
"929ba893-c9dc-44d7-b1fd-30834bd3ab85_0","f96d552a-618d-4d0c-a39a-2dea3c411dee",21.987,0.9928322419972788,1.047,0,21.0
"b10b171b-3bc5-4849-bb1f-61ed9ea1ec7c_0","99b219f3-4593-428b-a4da-124a54630178",224.38604171779178,-0.15226898476723227,0.9972712965235191,0,225.0
"469df5f7-058f-4451-a998-57a48e8a56fe_0","e44141af-f1dc-44d3-bfa4-b674e5c953d7",413.46614163403325,0.0,1.0880687937737716,0,380.0
"d0486169-2205-40b2-895e-b672ecb9e5fc_0","f70f6bad-eb8d-4b8f-8431-4ab93581514e",224.92440719780555,0.9924003763537448,0.9996640319902469,0,225.0
